2024_89_CemigReconfigurationCases/1_AlimsCemig/SRS10/SRS10SegmentosMT.dss
new line.TR12124533 bus1=BMT166720719.3,bus2=BMT166720721.3,Phases=1,Linecode=CAB103_3_1,Length=0.040014000,Units=km
new line.TR12162837 bus1=BMT166721196.3,bus2=BMT8754874B.3,Phases=1,Linecode=CABA06_3_1,Length=0.033026000,Units=km
new line.TR12162839 bus1=BMT8754874B.3,bus2=BMT8754878B.3,Phases=1,Linecode=CABA06_3_1,Length=0.026485000,Units=km
new line.TR12162841 bus1=BMT8754878B.3,bus2=BMT166721198.3,Phases=1,Linecode=CABA06_3_1,Length=0.033627000,Units=km
new line.TR12241070 bus1=BMT166721187.3,bus2=BMT1242752B.3,Phases=1,Linecode=CAB102_3_1,Length=0.033026000,Units=km
new line.TR12241071 bus1=BMT1242752B.3,bus2=BMT1242759B.3,Phases=1,Linecode=CAB102_3_1,Length=0.036068000,Units=km
new line.TR12241072 bus1=BMT1242759B.3,bus2=BMT1242766B.3,Phases=1,Linecode=CAB102_3_1,Length=0.034070000,Units=km
new line.TR12241073 bus1=BMT1242766B.3,bus2=BMT1243781B.3,Phases=1,Linecode=CAB102_3_1,Length=0.034026000,Units=km
new line.TR12241076 bus1=BMT1243781B.3,bus2=BMT1243788B.3,Phases=1,Linecode=CAB102_3_1,Length=0.035012000,Units=km
new line.TR12241080 bus1=BMT1243788B.3,bus2=BMT1243802B.3,Phases=1,Linecode=CAB102_3_1,Length=0.035817000,Units=km
new line.TR12241083 bus1=BMT1243802B.3,bus2=BMT166721188.3,Phases=1,Linecode=CAB102_3_1,Length=0.030816000,Units=km
new line.TR12241086 bus1=BMT166721188.3,bus2=BMT1243816B.3,Phases=1,Linecode=CAB102_3_1,Length=0.033132000,Units=km
new line.TR12241087 bus1=BMT1243816B.3,bus2=BMT166721189.3,Phases=1,Linecode=CAB102_3_1,Length=0.030093000,Units=km
new line.TR12241101 bus1=BMT1243823B.3,bus2=BMT1244033B.3,Phases=1,Linecode=CAB103_3_1,Length=0.034377000,Units=km
new line.TR12241104 bus1=BMT1244033B.3,bus2=BMT1244026B.3,Phases=1,Linecode=CAB103_3_1,Length=0.032569000,Units=km
new line.TR12241108 bus1=BMT1244026B.3,bus2=BMT1244019B.3,Phases=1,Linecode=CAB103_3_1,Length=0.026485000,Units=km
new line.TR12241110 bus1=BMT1244019B.3,bus2=BMT1244012B.3,Phases=1,Linecode=CAB103_3_1,Length=0.031791000,Units=km
new line.TR12241112 bus1=BMT1244012B.3,bus2=BMT166721190.3,Phases=1,Linecode=CAB103_3_1,Length=0.029284000,Units=km
new line.TR12241118 bus1=BMT166721189.3,bus2=BMT1243837B.3,Phases=1,Linecode=CAB102_3_1,Length=0.039064000,Units=km
new line.TR12241119 bus1=BMT1243837B.3,bus2=BMT166721191.3,Phases=1,Linecode=CAB102_3_1,Length=0.033253000,Units=km
new line.TR12241120 bus1=BMT1243851B.3,bus2=BMT1243865B.3,Phases=1,Linecode=CAB103_3_1,Length=0.023353000,Units=km
new line.TR12241121 bus1=BMT1243865B.3,bus2=BMT166721192.3,Phases=1,Linecode=CAB103_3_1,Length=0.029742000,Units=km
new line.TR12279499 bus1=BMT166720386.1,bus2=BMT166720389.1,Phases=1,Linecode=CAB202_3_1,Length=0.295669000,Units=km
new line.TR12279500 bus1=BMT166720389.1,bus2=BMT166720390.1,Phases=1,Linecode=CAB202_3_1,Length=0.049260000,Units=km
new line.TR12279503 bus1=BMT166720389.1,bus2=BMT166720391.1,Phases=1,Linecode=CAB103_3_1,Length=0.078051000,Units=km
new line.TR12357401 bus1=BMT166720550.2,bus2=BMT8961090B.2,Phases=1,Linecode=CAB202_3_1,Length=0.023862000,Units=km
new line.TR12357402 bus1=BMT8961090B.2,bus2=BMT8961092B.2,Phases=1,Linecode=CAB202_3_1,Length=0.034537000,Units=km
new line.TR12357403 bus1=BMT8961092B.2,bus2=BMT8961093B.2,Phases=1,Linecode=CAB202_3_1,Length=0.033388000,Units=km
new line.TR12357404 bus1=BMT8961093B.2,bus2=BMT166720551.2,Phases=1,Linecode=CAB202_3_1,Length=0.127320000,Units=km
new line.TR12357509 bus1=BMT166721384.1.2.3,bus2=BMT8961219B.1.2.3,Phases=3,Linecode=CABA06_3_3,Length=0.015005000,Units=km
new line.TR12357708 bus1=BMT8961219B.1.2.3,bus2=BMT166721385.1.2.3,Phases=3,Linecode=CABA06_3_3,Length=0.035480000,Units=km
new line.TR12357709 bus1=BMT166721386.1.2.3,bus2=BMT8961222B.1.2.3,Phases=3,Linecode=CABA06_3_3,Length=0.036891000,Units=km
new line.TR12357710 bus1=BMT8961222B.1.2.3,bus2=BMT8961225B.1.2.3,Phases=3,Linecode=CABA06_3_3,Length=0.035367000,Units=km
new line.TR12357711 bus1=BMT8961225B.1.2.3,bus2=BMT8961227B.1.2.3,Phases=3,Linecode=CABA06_3_3,Length=0.031775000,Units=km
new line.TR12357712 bus1=BMT8961227B.1.2.3,bus2=BMT8961230B.1.2.3,Phases=3,Linecode=CABA06_3_3,Length=0.031775000,Units=km
new line.TR12357713 bus1=BMT8961230B.1.2.3,bus2=BMT8961231B.1.2.3,Phases=3,Linecode=CABA06_3_3,Length=0.012534000,Units=km
new line.TR12357714 bus1=BMT8961231B.1.2.3,bus2=BMT166721387.1.2.3,Phases=3,Linecode=CABA06_3_3,Length=0.026086000,Units=km
new line.TR12357715 bus1=BMT166721387.1.2.3,bus2=BMT8961301B.1.2.3,Phases=3,Linecode=CABA06_3_3,Length=0.037749000,Units=km
new line.TR12357716 bus1=BMT8961301B.1.2.3,bus2=BMT8961302B.1.2.3,Phases=3,Linecode=CABA06_3_3,Length=0.029165000,Units=km
new line.TR12357717 bus1=BMT8961302B.1.2.3,bus2=BMT8961395B.1.2.3,Phases=3,Linecode=CABA06_3_3,Length=0.007074000,Units=km
new line.TR12357718 bus1=BMT8961395B.1.2.3,bus2=BMT166721388.1.2.3,Phases=3,Linecode=CABA06_3_3,Length=0.024848000,Units=km
new line.TR12357719 bus1=BMT166721388.1.2.3,bus2=BMT166721389.1.2.3,Phases=3,Linecode=CABA06_3_3,Length=0.044937000,Units=km
new line.TR12357720 bus1=BMT166721388.1.2.3,bus2=BMT8961402B.1.2.3,Phases=3,Linecode=CABA06_3_3,Length=0.023778000,Units=km
new line.TR12357721 bus1=BMT8961402B.1.2.3,bus2=BMT166721390.1.2.3,Phases=3,Linecode=CABA06_3_3,Length=0.023778000,Units=km
new line.TR12357722 bus1=BMT166721390.1.2.3,bus2=BMT8961404B.1.2.3,Phases=3,Linecode=CABA06_3_3,Length=0.005002000,Units=km
new line.TR12357723 bus1=BMT8961404B.1.2.3,bus2=BMT166721391.1.2.3,Phases=3,Linecode=CABA06_3_3,Length=0.045137000,Units=km
new line.TR12357725 bus1=BMT166721390.1.2.3,bus2=BMT8961414B.1.2.3,Phases=3,Linecode=CABA06_3_3,Length=0.035183000,Units=km
new line.TR12357726 bus1=BMT8961414B.1.2.3,bus2=BMT8961415B.1.2.3,Phases=3,Linecode=CABA06_3_3,Length=0.032996000,Units=km
new line.TR12357727 bus1=BMT8961415B.1.2.3,bus2=BMT8961416B.1.2.3,Phases=3,Linecode=CABA06_3_3,Length=0.042216000,Units=km
new line.TR12357728 bus1=BMT8961416B.1.2.3,bus2=BMT166721392.1.2.3,Phases=3,Linecode=CABA06_3_3,Length=0.044399000,Units=km
new line.TR12359683 bus1=BMT166721370.3,bus2=BMT8963478B.3,Phases=1,Linecode=CAB103_3_1,Length=0.079430000,Units=km
new line.TR12359684 bus1=BMT8963478B.3,bus2=BMT166721371.3,Phases=1,Linecode=CAB103_3_1,Length=0.069837000,Units=km
new line.TR12512216 bus1=BMT166720088.1.2.3,bus2=BMT9120670B.1.2.3,Phases=3,Linecode=CAB204_3_3,Length=0.241077000,Units=km
new line.TR12512217 bus1=BMT9120670B.1.2.3,bus2=BMT166720090.1.2.3,Phases=3,Linecode=CAB204_3_3,Length=0.064161000,Units=km
new line.TR12549491 bus1=BMT166720746.1,bus2=BMT166720748.1,Phases=1,Linecode=CABA06_3_1,Length=0.052363000,Units=km
new line.TR12168836 bus1=BMT8736950B.1.2.3,bus2=BMT8766659B.1.2.3,Phases=3,Linecode=CABA08_3_3,Length=0.050017000,Units=km
new line.TR12336937 bus1=BMT171189528.1.2.3,bus2=BMT3948910B.1.2.3,Phases=3,Linecode=CABA06_3_3,Length=0.035240000,Units=km
new line.TR12336940 bus1=BMT8829508B.1.2.3,bus2=BMT8939060B.1.2.3,Phases=3,Linecode=CABA06_3_3,Length=0.044792000,Units=km
new line.TR12336941 bus1=BMT8939060B.1.2.3,bus2=BMT171189529.1.2.3,Phases=3,Linecode=CABA06_3_3,Length=0.041062000,Units=km
new line.TR12336965 bus1=BMT3948910B.1.2.3,bus2=BMT8939075B.1.2.3,Phases=3,Linecode=CABA06_3_3,Length=0.034246000,Units=km
new line.TR12336966 bus1=BMT8939075B.1.2.3,bus2=BMT8829508B.1.2.3,Phases=3,Linecode=CABA06_3_3,Length=0.042204000,Units=km
new line.TR12453738 bus1=BMT166721400.1.2.3,bus2=BMT8588565B.1.2.3,Phases=3,Linecode=CABA06_3_3,Length=0.035026000,Units=km
new line.TR12453739 bus1=BMT8588565B.1.2.3,bus2=BMT8588684B.1.2.3,Phases=3,Linecode=CABA06_3_3,Length=0.028027000,Units=km
new line.TR12453740 bus1=BMT8588684B.1.2.3,bus2=BMT9061962B.1.2.3,Phases=3,Linecode=CABA06_3_3,Length=0.024008000,Units=km
new line.TR12453741 bus1=BMT9061962B.1.2.3,bus2=BMT9061964B.1.2.3,Phases=3,Linecode=CABA06_3_3,Length=0.023008000,Units=km
new line.TR12453742 bus1=BMT9061964B.1.2.3,bus2=BMT9062055B.1.2.3,Phases=3,Linecode=CABA06_3_3,Length=0.022144000,Units=km
new line.TR12453743 bus1=BMT9062055B.1.2.3,bus2=BMT166721401.1.2.3,Phases=3,Linecode=CABA06_3_3,Length=0.016161000,Units=km
new line.TR12453744 bus1=BMT166721401.1.2.3,bus2=BMT9062058B.1.2.3,Phases=3,Linecode=CABA06_3_3,Length=0.030093000,Units=km
new line.TR12453745 bus1=BMT9062058B.1.2.3,bus2=BMT9062059B.1.2.3,Phases=3,Linecode=CABA06_3_3,Length=0.026315000,Units=km
new line.TR12453746 bus1=BMT9062059B.1.2.3,bus2=BMT9062060B.1.2.3,Phases=3,Linecode=CABA06_3_3,Length=0.032291000,Units=km
new line.TR12453747 bus1=BMT9062060B.1.2.3,bus2=BMT9062065B.1.2.3,Phases=3,Linecode=CABA06_3_3,Length=0.012170000,Units=km
new line.TR12453748 bus1=BMT9062065B.1.2.3,bus2=BMT166721402.1.2.3,Phases=3,Linecode=CABA06_3_3,Length=0.031633000,Units=km
new line.TR12453749 bus1=BMT166721401.1.2.3,bus2=BMT9062096B.1.2.3,Phases=3,Linecode=CABA06_3_3,Length=0.013005000,Units=km
new line.TR12453750 bus1=BMT9062096B.1.2.3,bus2=BMT9062098B.1.2.3,Phases=3,Linecode=CABA06_3_3,Length=0.034246000,Units=km
new line.TR12453752 bus1=BMT9062098B.1.2.3,bus2=BMT166721403.1.2.3,Phases=3,Linecode=CABA06_3_3,Length=0.035367000,Units=km
new line.TR12491213 bus1=BMT8420334B.1,bus2=BMT172266527.1,Phases=1,Linecode=CAB103_3_1,Length=0.038222000,Units=km
new line.TR12491214 bus1=BMT172266527.1,bus2=BMT172266528.1,Phases=1,Linecode=CAB103_3_1,Length=0.031155000,Units=km
new line.TR12491216 bus1=BMT172266527.1,bus2=BMT172266529.1,Phases=1,Linecode=CAB103_3_1,Length=0.015658000,Units=km
new line.TR12524843 bus1=BMT166721363.3,bus2=BMT166721366.3,Phases=1,Linecode=CAB103_3_1,Length=0.012004000,Units=km
new line.TR12524844 bus1=BMT166721366.3,bus2=BMT166721367.3,Phases=1,Linecode=CAB103_3_1,Length=0.028010000,Units=km
new line.TR12524850 bus1=BMT166721366.3,bus2=BMT9132733B.3,Phases=1,Linecode=CAB202_3_1,Length=0.065029000,Units=km
new line.TR12524851 bus1=BMT9132733B.3,bus2=BMT166721368.3,Phases=1,Linecode=CAB202_3_1,Length=0.075051000,Units=km
new line.TR12563930 bus1=BMT166721250.1.2.3,bus2=BMT166721263.1.2.3,Phases=3,Linecode=CAB104_3_3,Length=0.023203000,Units=km
new line.TR12563931 bus1=BMT166721263.1.2.3,bus2=BMT166721264.1.2.3,Phases=3,Linecode=CAB104_3_3,Length=0.021221000,Units=km
new line.TR12564107 bus1=BMT166721348.1.2.3,bus2=BMT9172997B.1.2.3,Phases=3,Linecode=CABA06_3_3,Length=0.010444000,Units=km
new line.TR12564113 bus1=BMT9172997B.1.2.3,bus2=BMT166721349.1.2.3,Phases=3,Linecode=CABA06_3_3,Length=0.032569000,Units=km
new line.TR12564115 bus1=BMT166721349.1.2.3,bus2=BMT9173001B.1.2.3,Phases=3,Linecode=CABA06_3_3,Length=0.031268000,Units=km
new line.TR12564117 bus1=BMT9173001B.1.2.3,bus2=BMT9173002B.1.2.3,Phases=3,Linecode=CABA06_3_3,Length=0.026485000,Units=km
new line.TR12564119 bus1=BMT9173002B.1.2.3,bus2=BMT166721350.1.2.3,Phases=3,Linecode=CABA06_3_3,Length=0.003001000,Units=km
new line.TR12564120 bus1=BMT166721350.1.2.3,bus2=BMT9173003B.1.2.3,Phases=3,Linecode=CABA06_3_3,Length=0.038652000,Units=km
new line.TR12564121 bus1=BMT9173003B.1.2.3,bus2=BMT9173004B.1.2.3,Phases=3,Linecode=CABA06_3_3,Length=0.040535000,Units=km
new line.TR12564124 bus1=BMT9173004B.1.2.3,bus2=BMT9173009B.1.2.3,Phases=3,Linecode=CABA06_3_3,Length=0.028188000,Units=km
new line.TR12564125 bus1=BMT9173009B.1.2.3,bus2=BMT9173010B.1.2.3,Phases=3,Linecode=CABA06_3_3,Length=0.010004000,Units=km
new line.TR12564130 bus1=BMT9173010B.1.2.3,bus2=BMT166721352.1.2.3,Phases=3,Linecode=CABA06_3_3,Length=0.026692000,Units=km
new line.TR12564148 bus1=BMT166721350.1.2.3,bus2=BMT9173200B.1.2.3,Phases=3,Linecode=CABA06_3_3,Length=0.009223000,Units=km
new line.TR12564152 bus1=BMT166721350.1.2.3,bus2=BMT9173199B.1.2.3,Phases=3,Linecode=CABA06_3_3,Length=0.032399000,Units=km
new line.TR12564153 bus1=BMT9173199B.1.2.3,bus2=BMT166721353.1.2.3,Phases=3,Linecode=CABA06_3_3,Length=0.033552000,Units=km
new line.TR12564327 bus1=BMT166721349.1.2.3,bus2=BMT9173000B.1.2.3,Phases=3,Linecode=CABA06_3_3,Length=0.008065000,Units=km
new line.TR12564328 bus1=BMT9173000B.1.2.3,bus2=BMT9173392B.1.2.3,Phases=3,Linecode=CABA06_3_3,Length=0.040126000,Units=km
new line.TR12564329 bus1=BMT9173392B.1.2.3,bus2=BMT9173395B.1.2.3,Phases=3,Linecode=CABA06_3_3,Length=0.039064000,Units=km
new line.TR12564332 bus1=BMT9173395B.1.2.3,bus2=BMT166721351.1.2.3,Phases=3,Linecode=CABA06_3_3,Length=0.035367000,Units=km
new line.TR12564517 bus1=BMT166721246.1.2.3,bus2=BMT9173666B.1.2.3,Phases=3,Linecode=CAB103_3_3,Length=0.009853000,Units=km
new line.TR12564518 bus1=BMT9173666B.1.2.3,bus2=BMT166721247.1.2.3,Phases=3,Linecode=CAB103_3_3,Length=0.008547000,Units=km
new line.TR12641889 bus1=BMT169935040.1,bus2=BMT169935042.1,Phases=1,Linecode=CAB103_3_1,Length=0.044669000,Units=km
new line.TR12643516 bus1=BMT172266523.1,bus2=BMT1283177B.1,Phases=1,Linecode=CAB103_3_1,Length=0.043752000,Units=km
new line.TR12643517 bus1=BMT1283177B.1,bus2=BMT2923613B.1,Phases=1,Linecode=CAB103_3_1,Length=0.040038000,Units=km
new line.TR12643518 bus1=BMT2923613B.1,bus2=BMT9254366B.1,Phases=1,Linecode=CAB103_3_1,Length=0.050236000,Units=km
new line.TR12643519 bus1=BMT9254366B.1,bus2=BMT9254368B.1,Phases=1,Linecode=CAB103_3_1,Length=0.049836000,Units=km
new line.TR12643520 bus1=BMT9254368B.1,bus2=BMT9254369B.1,Phases=1,Linecode=CAB103_3_1,Length=0.049836000,Units=km
new line.TR12643521 bus1=BMT9254369B.1,bus2=BMT172266524.1,Phases=1,Linecode=CAB103_3_1,Length=0.051261000,Units=km
new line.TR12136945 bus1=BMT166721122.1.2.3,bus2=BMT166721124.1.2.3,Phases=3,Linecode=CABA06_3_3,Length=0.004002000,Units=km
new line.TR12136946 bus1=BMT166721125.1.2.3,bus2=BMT166721126.1.2.3,Phases=3,Linecode=CAB902_4_3,Length=0.004474000,Units=km
new line.TR12137777 bus1=BMT166721108.2,bus2=BMT166721112.2,Phases=1,Linecode=CAB103_3_1,Length=0.009223000,Units=km
new line.TR12206164 bus1=BMT1289484B.1.2.3,bus2=BMT8807225B.1.2.3,Phases=3,Linecode=CABA06_3_3,Length=0.027794000,Units=km
new line.TR12206165 bus1=BMT1289477B.1.2.3,bus2=BMT8807225B.1.2.3,Phases=3,Linecode=CABA06_3_3,Length=0.023332000,Units=km
new line.TR12244097 bus1=BMT171486024.1.2.3,bus2=BMT171486025.1.2.3,Phases=3,Linecode=CABA08_3_3,Length=0.009059000,Units=km
new line.TR12245295 bus1=BMT166720805.1.2.3,bus2=BMT166720806.1.2.3,Phases=3,Linecode=CAB204_3_3,Length=0.088489000,Units=km
new line.TR12245296 bus1=BMT172069068.1.2.3,bus2=BMT172069069.1.2.3,Phases=3,Linecode=CAB204_3_3,Length=0.023353000,Units=km
new line.TR12435480 bus1=BMT4088098B.1.2.3,bus2=BMT166720732.1.2.3,Phases=3,Linecode=CAB202_3_3,Length=0.082490000,Units=km
new line.TR12435481 bus1=BMT166720732.1.2.3,bus2=BMT4088105B.1.2.3,Phases=3,Linecode=CAB202_3_3,Length=0.084675000,Units=km
new line.TR12435485 bus1=BMT166720744.1,bus2=BMT166720745.1,Phases=1,Linecode=CAB202_3_1,Length=0.230494000,Units=km
new line.TR12435490 bus1=BMT166720745.1,bus2=BMT9041560B.1,Phases=1,Linecode=CABA06_3_1,Length=0.038026000,Units=km
new line.TR12435491 bus1=BMT9041560B.1,bus2=BMT166720746.1,Phases=1,Linecode=CABA06_3_1,Length=0.059686000,Units=km
new line.TR12435494 bus1=BMT166720746.1,bus2=BMT166720747.1,Phases=1,Linecode=CABA06_3_1,Length=0.079933000,Units=km
new line.TR12466617 bus1=BMT166720454.1,bus2=BMT166720456.1,Phases=1,Linecode=CAB103_3_1,Length=0.044836000,Units=km
new line.TR12466619 bus1=BMT166720456.1,bus2=BMT166720457.1,Phases=1,Linecode=CAB202_3_1,Length=0.126076000,Units=km
new line.TR12466620 bus1=BMT166720457.1,bus2=BMT166720458.1,Phases=1,Linecode=CAB103_3_1,Length=0.036782000,Units=km
new line.TR12466789 bus1=BMT3228988B.2,bus2=BMT166719911.2,Phases=1,Linecode=CAB202_3_1,Length=0.098647000,Units=km
new line.TR12466790 bus1=BMT166719912.2,bus2=BMT3228981B.2,Phases=1,Linecode=CAB202_3_1,Length=0.042168000,Units=km
new line.TR12504590 bus1=BMT168676003.1.2.3,bus2=BMT168676004.1.2.3,Phases=3,Linecode=CABA06_3_3,Length=0.010444000,Units=km
new line.TR12505433 bus1=BMT172269803.1.2.3,bus2=BMT3253229B.1.2.3,Phases=3,Linecode=CAB204_3_3,Length=0.120807000,Units=km
new line.TR12542183 bus1=BMT169935040.1.2.3,bus2=BMT166720067.1.2.3,Phases=3,Linecode=CABA06_3_3,Length=0.005002000,Units=km
new line.TR12542184 bus1=BMT167195627.1.2.3,bus2=BMT166720069.1.2.3,Phases=3,Linecode=CABA06_3_3,Length=0.052027000,Units=km
new line.TR12728147 bus1=BMT172648503.2,bus2=BMT9334991B.2,Phases=1,Linecode=CAB103_3_1,Length=0.018445000,Units=km
new line.TR12728151 bus1=BMT9334991B.2,bus2=BMT172648505.2,Phases=1,Linecode=CAB103_3_1,Length=0.030243000,Units=km
new line.TR12728340 bus1=BMT166719774.1.2.3,bus2=BMT9335240B.1.2.3,Phases=3,Linecode=CABA08_3_3,Length=0.038341000,Units=km
new line.TR12728341 bus1=BMT9335240B.1.2.3,bus2=BMT3536554B.1.2.3,Phases=3,Linecode=CABA08_3_3,Length=0.035141000,Units=km
new line.TR12728345 bus1=BMT166719775.1.2.3,bus2=BMT9335249B.1.2.3,Phases=3,Linecode=CABA08_3_3,Length=0.029010000,Units=km
new line.TR12728346 bus1=BMT9335249B.1.2.3,bus2=BMT3536547B.1.2.3,Phases=3,Linecode=CABA08_3_3,Length=0.027009000,Units=km
new line.TR12728358 bus1=BMT3536547B.1.2.3,bus2=BMT9335259B.1.2.3,Phases=3,Linecode=CABA08_3_3,Length=0.027009000,Units=km
new line.TR12728361 bus1=BMT9335259B.1.2.3,bus2=BMT9335260B.1.2.3,Phases=3,Linecode=CABA08_3_3,Length=0.027028000,Units=km
new line.TR12728364 bus1=BMT9335260B.1.2.3,bus2=BMT9335262B.1.2.3,Phases=3,Linecode=CABA08_3_3,Length=0.027028000,Units=km
new line.TR12728366 bus1=BMT9335262B.1.2.3,bus2=BMT9335264B.1.2.3,Phases=3,Linecode=CABA08_3_3,Length=0.032996000,Units=km
new line.TR12728373 bus1=BMT9335264B.1.2.3,bus2=BMT9335266B.1.2.3,Phases=3,Linecode=CABA08_3_3,Length=0.032768000,Units=km
new line.TR12728375 bus1=BMT9335266B.1.2.3,bus2=BMT9335267B.1.2.3,Phases=3,Linecode=CABA08_3_3,Length=0.030474000,Units=km
new line.TR12728376 bus1=BMT9335267B.1.2.3,bus2=BMT170700969.1.2.3,Phases=3,Linecode=CABA08_3_3,Length=0.030094000,Units=km
new line.TR12728377 bus1=BMT3536281B.1.2.3,bus2=BMT9335268B.1.2.3,Phases=3,Linecode=CABA08_3_3,Length=0.054166000,Units=km
new line.TR12728378 bus1=BMT9335268B.1.2.3,bus2=BMT170700970.1.2.3,Phases=3,Linecode=CABA08_3_3,Length=0.031586000,Units=km
new line.TR12729849 bus1=BMT170700971.1.2.3,bus2=BMT170700973.1.2.3,Phases=3,Linecode=CABA08_3_3,Length=0.019033000,Units=km
new line.TR12729851 bus1=BMT170700973.1.2.3,bus2=BMT170677722.1.2.3,Phases=3,Linecode=CABA08_3_3,Length=0.020007000,Units=km
new line.TR12729852 bus1=BMT171486023.1.2.3,bus2=BMT171486024.1.2.3,Phases=3,Linecode=CABA08_3_3,Length=0.020007000,Units=km
new line.TR12729856 bus1=BMT171486025.1.2.3,bus2=BMT171486027.1.2.3,Phases=3,Linecode=CABA06_3_3,Length=0.013043000,Units=km
new line.TR12729889 bus1=BMT4088056B.1.2.3,bus2=BMT9336944B.1.2.3,Phases=3,Linecode=CAB107_3_3,Length=0.041451000,Units=km
new line.TR12729890 bus1=BMT9336944B.1.2.3,bus2=BMT9336945B.1.2.3,Phases=3,Linecode=CAB107_3_3,Length=0.049494000,Units=km
new line.TR12729891 bus1=BMT9336945B.1.2.3,bus2=BMT9336947B.1.2.3,Phases=3,Linecode=CAB107_3_3,Length=0.062005000,Units=km
new line.TR12729892 bus1=BMT9336947B.1.2.3,bus2=BMT9336948B.1.2.3,Phases=3,Linecode=CAB107_3_3,Length=0.045237000,Units=km
new line.TR12729895 bus1=BMT9336948B.1.2.3,bus2=BMT9336949B.1.2.3,Phases=3,Linecode=CAB107_3_3,Length=0.040536000,Units=km
new line.TR12729896 bus1=BMT9336949B.1.2.3,bus2=BMT9336951B.1.2.3,Phases=3,Linecode=CAB107_3_3,Length=0.040275000,Units=km
new line.TR12729897 bus1=BMT9336951B.1.2.3,bus2=BMT9336952B.1.2.3,Phases=3,Linecode=CAB107_3_3,Length=0.040511000,Units=km
new line.TR12729901 bus1=BMT9336952B.1.2.3,bus2=BMT9336953B.1.2.3,Phases=3,Linecode=CAB107_3_3,Length=0.044569000,Units=km
new line.TR12729902 bus1=BMT9336953B.1.2.3,bus2=BMT9336956B.1.2.3,Phases=3,Linecode=CAB107_3_3,Length=0.049997000,Units=km
new line.TR12729904 bus1=BMT9336956B.1.2.3,bus2=BMT9336957B.1.2.3,Phases=3,Linecode=CAB107_3_3,Length=0.044287000,Units=km
new line.TR12729910 bus1=BMT9336957B.1.2.3,bus2=BMT9336958B.1.2.3,Phases=3,Linecode=CAB107_3_3,Length=0.044658000,Units=km
new line.TR12729911 bus1=BMT9336958B.1.2.3,bus2=BMT9336959B.1.2.3,Phases=3,Linecode=CAB107_3_3,Length=0.033627000,Units=km
new line.TR12729912 bus1=BMT9336959B.1.2.3,bus2=BMT9336975B.1.2.3,Phases=3,Linecode=CAB107_3_3,Length=0.052219000,Units=km
new line.TR12729913 bus1=BMT9336975B.1.2.3,bus2=BMT9336974B.1.2.3,Phases=3,Linecode=CAB107_3_3,Length=0.052219000,Units=km
new line.TR12729914 bus1=BMT9336974B.1.2.3,bus2=BMT9336973B.1.2.3,Phases=3,Linecode=CAB107_3_3,Length=0.049746000,Units=km
new line.TR12729915 bus1=BMT9336973B.1.2.3,bus2=BMT9336972B.1.2.3,Phases=3,Linecode=CAB107_3_3,Length=0.049997000,Units=km
new line.TR12729916 bus1=BMT9336972B.1.2.3,bus2=BMT4088049B.1.2.3,Phases=3,Linecode=CAB107_3_3,Length=0.041124000,Units=km
new line.TR12729919 bus1=BMT4092606B.1.2.3,bus2=BMT170684420.1.2.3,Phases=3,Linecode=CAB107_3_3,Length=0.038497000,Units=km
new line.TR12729922 bus1=BMT166719783.1.2.3,bus2=BMT9336993B.1.2.3,Phases=3,Linecode=CABA08_3_3,Length=0.041644000,Units=km
new line.TR12729923 bus1=BMT9336993B.1.2.3,bus2=BMT3176145B.1.2.3,Phases=3,Linecode=CABA08_3_3,Length=0.079739000,Units=km
new line.TR12729937 bus1=BMT9337004B.1.2.3,bus2=BMT166719789.1.2.3,Phases=3,Linecode=CABA08_3_3,Length=0.040014000,Units=km
new line.TR12729938 bus1=BMT170684421.1.2.3,bus2=BMT9337005B.1.2.3,Phases=3,Linecode=CABA08_3_3,Length=0.030010000,Units=km
new line.TR12729939 bus1=BMT9337005B.1.2.3,bus2=BMT9337004B.1.2.3,Phases=3,Linecode=CABA08_3_3,Length=0.040014000,Units=km
new line.TR12729942 bus1=BMT8766659B.1.2.3,bus2=BMT9337007B.1.2.3,Phases=3,Linecode=CABA08_3_3,Length=0.034026000,Units=km
new line.TR12729961 bus1=BMT9337007B.1.2.3,bus2=BMT9337012B.1.2.3,Phases=3,Linecode=CABA08_3_3,Length=0.038066000,Units=km
new line.TR12729962 bus1=BMT9337012B.1.2.3,bus2=BMT9337013B.1.2.3,Phases=3,Linecode=CABA08_3_3,Length=0.050107000,Units=km
new line.TR12729963 bus1=BMT9337013B.1.2.3,bus2=BMT9337014B.1.2.3,Phases=3,Linecode=CABA08_3_3,Length=0.050107000,Units=km
new line.TR12729966 bus1=BMT9337014B.1.2.3,bus2=BMT9337015B.1.2.3,Phases=3,Linecode=CABA08_3_3,Length=0.045623000,Units=km
new line.TR12729967 bus1=BMT9337015B.1.2.3,bus2=BMT170684423.1.2.3,Phases=3,Linecode=CABA08_3_3,Length=0.045623000,Units=km
new line.TR12729970 bus1=BMT9337017B.1.2.3,bus2=BMT9337018B.1.2.3,Phases=3,Linecode=CAB107_3_3,Length=0.075205000,Units=km
new line.TR12729971 bus1=BMT170684423.1.2.3,bus2=BMT9337035B.1.2.3,Phases=3,Linecode=CAB107_3_3,Length=0.071613000,Units=km
new line.TR12729972 bus1=BMT9337035B.1.2.3,bus2=BMT9337017B.1.2.3,Phases=3,Linecode=CAB107_3_3,Length=0.072970000,Units=km
new line.TR12729973 bus1=BMT9337018B.1.2.3,bus2=BMT9337019B.1.2.3,Phases=3,Linecode=CAB107_3_3,Length=0.051641000,Units=km
new line.TR12729975 bus1=BMT9337019B.1.2.3,bus2=BMT170684424.1.2.3,Phases=3,Linecode=CAB107_3_3,Length=0.046631000,Units=km
new line.TR12729998 bus1=BMT170684424.1.2.3,bus2=BMT9337042B.1.2.3,Phases=3,Linecode=CAB107_3_3,Length=0.043695000,Units=km
new line.TR12729999 bus1=BMT9337042B.1.2.3,bus2=BMT9337043B.1.2.3,Phases=3,Linecode=CAB107_3_3,Length=0.050978000,Units=km
new line.TR12730000 bus1=BMT9337043B.1.2.3,bus2=BMT9337044B.1.2.3,Phases=3,Linecode=CAB107_3_3,Length=0.059223000,Units=km
new line.TR12730001 bus1=BMT9337044B.1.2.3,bus2=BMT9337045B.1.2.3,Phases=3,Linecode=CAB107_3_3,Length=0.056064000,Units=km
new line.TR12730004 bus1=BMT9337045B.1.2.3,bus2=BMT9337048B.1.2.3,Phases=3,Linecode=CAB107_3_3,Length=0.054836000,Units=km
new line.TR12730005 bus1=BMT9337048B.1.2.3,bus2=BMT9337049B.1.2.3,Phases=3,Linecode=CAB107_3_3,Length=0.075457000,Units=km
new line.TR12730006 bus1=BMT9337049B.1.2.3,bus2=BMT9337051B.1.2.3,Phases=3,Linecode=CAB107_3_3,Length=0.077647000,Units=km
new line.TR12730009 bus1=BMT9337051B.1.2.3,bus2=BMT9337058B.1.2.3,Phases=3,Linecode=CAB107_3_3,Length=0.061152000,Units=km
new line.TR12730010 bus1=BMT9337058B.1.2.3,bus2=BMT9337059B.1.2.3,Phases=3,Linecode=CAB107_3_3,Length=0.067209000,Units=km
new line.TR12730011 bus1=BMT9337059B.1.2.3,bus2=BMT9337060B.1.2.3,Phases=3,Linecode=CAB107_3_3,Length=0.072301000,Units=km
new line.TR12730012 bus1=BMT9337060B.1.2.3,bus2=BMT9337061B.1.2.3,Phases=3,Linecode=CAB107_3_3,Length=0.083706000,Units=km
new line.TR12730013 bus1=BMT9337061B.1.2.3,bus2=BMT2247105B.1.2.3,Phases=3,Linecode=CAB107_3_3,Length=0.088799000,Units=km
new line.TR12730030 bus1=BMT2247112B.1.2.3,bus2=BMT9337086B.1.2.3,Phases=3,Linecode=CAB107_3_3,Length=0.070734000,Units=km
new line.TR12730031 bus1=BMT9337086B.1.2.3,bus2=BMT9337087B.1.2.3,Phases=3,Linecode=CAB107_3_3,Length=0.071143000,Units=km
...
