2024_89_CemigReconfigurationCases/1_AlimsCemig/SRS10/SRS10ChavesMT.dss
new line.CTR101493 bus1=BMT168100360.1.2.3,bus2=BMT166720167.1.2.3,Phases=3,LineCode=tieSwitch,Length=0.001,Units=km,switch=T !numEQ 239465
!posicao original: aberto. Manobra2 FECHAR
open line.CTR101493 term=1
new line.CTR115290 bus1=BMT166719939.2,bus2=BMT166719942.2,Phases=1,LineCode=tieSwitch1,Length=0.001,Units=km,switch=T !numEQ 62648
new line.CTR128506 bus1=BMT166719767.1.2.3,bus2=BMT166720727.1.2.3,Phases=3,LineCode=tieSwitch,Length=0.001,Units=km,switch=T !numEQ 62326
new line.CTR14350 bus1=BMT166720891.1.2.3,bus2=BMT166720892.1.2.3,Phases=3,LineCode=tieSwitch,Length=0.001,Units=km,switch=T !numEQ 63455
new line.CTR157696 bus1=BMT166720801.1.2.3,bus2=BMT166720802.1.2.3,Phases=3,LineCode=tieSwitch,Length=0.001,Units=km,switch=T !numEQ 174333
new line.CTR157703 bus1=BMT166720816.2,bus2=BMT166721458.2,Phases=1,LineCode=tieSwitch1,Length=0.001,Units=km,switch=T !numEQ 63951
new line.CTR157780 bus1=BMT166720819.3,bus2=BMT166721453.3,Phases=1,LineCode=tieSwitch1,Length=0.001,Units=km,switch=T !numEQ 174592
new line.CTR157787 bus1=BMT166720830.1,bus2=BMT166721446.1,Phases=1,LineCode=tieSwitch1,Length=0.001,Units=km,switch=T !numEQ 174593
new line.CTR188797 bus1=BMT166721266.1.2.3,bus2=BMT166721342.1.2.3,Phases=3,LineCode=tieSwitch,Length=0.001,Units=km,switch=T !numEQ 214141
new line.CTR42966 bus1=BMT170679810.1.2.3,bus2=BMT170684419.1.2.3,Phases=3,LineCode=tieSwitch,Length=0.001,Units=km,switch=T !numEQ 315127
new line.CTR73521 bus1=BMT166721264.1.2.3,bus2=BMT166721265.1.2.3,Phases=3,LineCode=tieSwitch,Length=0.001,Units=km,switch=T !numEQ 62345
new line.CTR847220 bus1=BMT166720928.1.2.3,bus2=BMT166721120.1.2.3,Phases=3,LineCode=tieSwitch,Length=0.001,Units=km,switch=T !numEQ 316239
new line.CTR847224 bus1=BMT166721124.1.2.3,bus2=BMT166721125.1.2.3,Phases=3,LineCode=tieSwitch,Length=0.001,Units=km,switch=T !numEQ 375558
new line.CTR890115 bus1=BMT166720749.1,bus2=BMT166720750.1,Phases=1,LineCode=tieSwitch1,Length=0.001,Units=km,switch=T !numEQ 266926
new line.CTR9065 bus1=BMT166720216.1.2.3,bus2=BMT166720217.1.2.3,Phases=3,LineCode=tieSwitch,Length=0.001,Units=km,switch=T !numEQ 172525
open line.CTR9065 term=1
new line.CTR919496 bus1=BMT173113332.1,bus2=BMT173113333.1,Phases=1,LineCode=tieSwitch1,Length=0.001,Units=km,switch=T !numEQ 327672
new line.CTR919558 bus1=BMT173127710.1.2.3,bus2=BMT173127711.1.2.3,Phases=3,LineCode=tieSwitch,Length=0.001,Units=km,switch=T !numEQ 330242
new line.CTR92043 bus1=BMT166720322.1,bus2=BMT166720350.1,Phases=1,LineCode=tieSwitch1,Length=0.001,Units=km,switch=T !numEQ 64027
new line.CTRR32257 bus1=BMT166720285.1,bus2=BMT172266502.1,Phases=1,LineCode=tieSwitch1,Length=0.001,Units=km,switch=T !numEQ 380050
new line.CTRR3283 bus1=BMT166719823.2,bus2=BMT166719824.2,Phases=1,LineCode=tieSwitch1,Length=0.001,Units=km,switch=T !numEQ 207181
new line.CTR11242 bus1=BMT166720209.3,bus2=BMT166720234.3,Phases=1,LineCode=tieSwitch1,Length=0.001,Units=km,switch=T !numEQ 63289
new line.CTR112434 bus1=BMT166720020.1.2.3,bus2=BMT166720627.1.2.3,Phases=3,LineCode=tieSwitch,Length=0.001,Units=km,switch=T !numEQ 63276
new line.CTR11256 bus1=BMT166721194.3,bus2=BMT166720885.3,Phases=1,LineCode=tieSwitch1,Length=0.001,Units=km,switch=T !numEQ 15747
open line.CTR11256 term=1
new line.CTR11311088 bus1=BMT2389066861.1.2.3,bus2=BMT2011310643.1.2.3,Phases=3,LineCode=tieSwitch,Length=0.001,Units=km,switch=T !numEQ 
new line.CTR11311096 bus1=BMT2011311113.1.2.3,bus2=BMT2389066861.1.2.3,Phases=3,LineCode=tieSwitch,Length=0.001,Units=km,switch=T !numEQ 
new line.CTR156821 bus1=BMT166721284.1.2.3,bus2=BMT172205035.1.2.3,Phases=3,LineCode=tieSwitch,Length=0.001,Units=km,switch=T !numEQ 63310
new line.CTR185360 bus1=BMT166719928.2,bus2=BMT166719932.2,Phases=1,LineCode=tieSwitch1,Length=0.001,Units=km,switch=T !numEQ 201340
new line.CTR185367 bus1=BMT166720096.1.2.3,bus2=BMT169056875.1.2.3,Phases=3,LineCode=tieSwitch,Length=0.001,Units=km,switch=T !numEQ 201341
new line.CTR330546 bus1=BMT168096373.1.2.3,bus2=BMT166720040.1.2.3,Phases=3,LineCode=tieSwitch,Length=0.001,Units=km,switch=T !numEQ 221586
new line.CTR441447 bus1=BMT166721068.2,bus2=BMT166721079.2,Phases=1,LineCode=tieSwitch1,Length=0.001,Units=km,switch=T !numEQ 312226
new line.CTR58233 bus1=BMT166719850.2,bus2=BMT171588282.2,Phases=1,LineCode=tieSwitch1,Length=0.001,Units=km,switch=T !numEQ 63677
new line.CTR68397 bus1=BMT166720097.1.2.3,bus2=BMT166720102.1.2.3,Phases=3,LineCode=tieSwitch,Length=0.001,Units=km,switch=T !numEQ 120774
new line.CTR74284 bus1=BMT166720162.1.2.3,bus2=BMT168677094.1.2.3,Phases=3,LineCode=tieSwitch,Length=0.001,Units=km,switch=T !numEQ 244237
new line.CTR850387 bus1=BMT166721192.3,bus2=BMT166721195.3,Phases=1,LineCode=tieSwitch1,Length=0.001,Units=km,switch=T !numEQ 377804
new line.CTR850445 bus1=BMT166719789.2,bus2=BMT166720661.2,Phases=1,LineCode=tieSwitch1,Length=0.001,Units=km,switch=T !numEQ 315102
new line.CTR865435 bus1=BMT166720109.1.2.3,bus2=BMT166720129.1.2.3,Phases=3,LineCode=tieSwitch,Length=0.001,Units=km,switch=T !numEQ 234897
new line.CTR893155 bus1=BMT166720067.1.2.3,bus2=BMT167195627.1.2.3,Phases=3,LineCode=tieSwitch,Length=0.001,Units=km,switch=T !numEQ 269113
new line.CTR894100 bus1=BMT166720748.1,bus2=BMT166720752.1,Phases=1,LineCode=tieSwitch1,Length=0.001,Units=km,switch=T !numEQ 269971
new line.CTR89411 bus1=BMT166721245.1.2.3,bus2=BMT166721251.1.2.3,Phases=3,LineCode=tieSwitch,Length=0.001,Units=km,switch=T !numEQ 62847
new line.CTR9401 bus1=BMT166721144.3,bus2=BMT166721145.3,Phases=1,LineCode=tieSwitch1,Length=0.001,Units=km,switch=T !numEQ 171995
new line.CTR153741 bus1=BMT166719915.2,bus2=BMT166719991.2,Phases=1,LineCode=tieSwitch1,Length=0.001,Units=km,switch=T !numEQ 255449
new line.CTR154084 bus1=BMT166721285.1.2.3,bus2=BMT166721312.1.2.3,Phases=3,LineCode=tieSwitch,Length=0.001,Units=km,switch=T !numEQ 173875
new line.CTR183421 bus1=BMT166720905.1.2.3,bus2=BMT167192989.1.2.3,Phases=3,LineCode=tieSwitch,Length=0.001,Units=km,switch=T !numEQ 324532
! MANOBRA ABRIR
! open line.CTR183421 term=1
new line.CTR184450 bus1=BMT166720763.1.2.3,bus2=BMT166720764.1.2.3,Phases=3,LineCode=tieSwitch,Length=0.001,Units=km,switch=T !numEQ 174529
new line.CTR184968 bus1=BMT166720767.1.2.3,bus2=BMT166720768.1.2.3,Phases=3,LineCode=tieSwitch,Length=0.001,Units=km,switch=T !numEQ 64124
new line.CTR197561 bus1=BMT166719916.2,bus2=BMT166719987.2,Phases=1,LineCode=tieSwitch1,Length=0.001,Units=km,switch=T !numEQ 230607
new line.CTR198079 bus1=BMT166720687.2,bus2=BMT166720699.2,Phases=1,LineCode=tieSwitch1,Length=0.001,Units=km,switch=T !numEQ 223410
new line.CTR410171 bus1=BMT166719807.1.2.3,bus2=BMT173127706.1.2.3,Phases=3,LineCode=tieSwitch,Length=0.001,Units=km,switch=T !numEQ 230652
new line.CTR44527 bus1=BMT166720431.2,bus2=BMT166720547.2,Phases=1,LineCode=tieSwitch1,Length=0.001,Units=km,switch=T !numEQ 63308
new line.CTR44534 bus1=BMT166720437.3,bus2=BMT172758633.3,Phases=1,LineCode=tieSwitch1,Length=0.001,Units=km,switch=T !numEQ 63290
new line.CTR44541 bus1=BMT166720501.3,bus2=BMT166720507.3,Phases=1,LineCode=tieSwitch1,Length=0.001,Units=km,switch=T !numEQ 79348
new line.CTR44555 bus1=BMT166719844.2,bus2=BMT166719910.2,Phases=1,LineCode=tieSwitch1,Length=0.001,Units=km,switch=T !numEQ 255451
new line.CTR44569 bus1=BMT166719833.2,bus2=BMT166720009.2,Phases=1,LineCode=tieSwitch1,Length=0.001,Units=km,switch=T !numEQ 298057
new line.CTR44604 bus1=BMT166720668.2,bus2=BMT166720669.2,Phases=1,LineCode=tieSwitch1,Length=0.001,Units=km,switch=T !numEQ 65014
new line.CTR44611 bus1=BMT166720683.2,bus2=BMT166720685.2,Phases=1,LineCode=tieSwitch1,Length=0.001,Units=km,switch=T !numEQ 63319
new line.CTR53382 bus1=BMT173127709.1.2.3,bus2=BMT4882192.1.2.3,Phases=3,LineCode=tieSwitch,Length=0.001,Units=km,switch=T !numEQ 239459
open line.CTR53382 term=1
new line.CTR64043 bus1=BMT166720212.1.2.3,bus2=BMT166720232.1.2.3,Phases=3,LineCode=tieSwitch,Length=0.001,Units=km,switch=T !numEQ 127670
new line.CTR85099 bus1=BMT166720269.1,bus2=BMT166720279.1,Phases=1,LineCode=tieSwitch1,Length=0.001,Units=km,switch=T !numEQ 62323
new line.CTR881691 bus1=BMT166720732.1,bus2=BMT166720744.1,Phases=1,LineCode=tieSwitch1,Length=0.001,Units=km,switch=T !numEQ 255659
new line.CTR894762 bus1=BMT166720100.3,bus2=BMT166720104.3,Phases=1,LineCode=tieSwitch1,Length=0.001,Units=km,switch=T !numEQ 269987
new line.CTR895988 bus1=BMT166721249.1.2.3,bus2=BMT166721250.1.2.3,Phases=3,LineCode=tieSwitch,Length=0.001,Units=km,switch=T !numEQ 270764
new line.CTR895990 bus1=BMT166721263.1.2.3,bus2=BMT166721348.1.2.3,Phases=3,LineCode=tieSwitch,Length=0.001,Units=km,switch=T !numEQ 270765
new line.CTR909558 bus1=BMT169935033.1.2.3,bus2=BMT169935034.1.2.3,Phases=3,LineCode=tieSwitch,Length=0.001,Units=km,switch=T !numEQ 280209
new line.CTRR36801 bus1=BMT166719911.2,bus2=BMT166719912.2,Phases=1,LineCode=tieSwitch1,Length=0.001,Units=km,switch=T !numEQ 255553
new line.CTR103726 bus1=BMT166721160.1.2.3,bus2=BMT166721177.1.2.3,Phases=3,LineCode=tieSwitch,Length=0.001,Units=km,switch=T !numEQ 173801
new line.CTR104041 bus1=BMT166721229.1.2.3,bus2=BMT166721230.1.2.3,Phases=3,LineCode=tieSwitch,Length=0.001,Units=km,switch=T !numEQ 63154
open line.CTR104041 term=1
new line.CTR130249 bus1=BMT166721273.1.2.3,bus2=BMT170691664.1.2.3,Phases=3,LineCode=tieSwitch,Length=0.001,Units=km,switch=T !numEQ 380052
new line.CTR175693 bus1=BMT166721169.3,bus2=BMT166721171.3,Phases=1,LineCode=tieSwitch1,Length=0.001,Units=km,switch=T !numEQ 62309
new line.CTR175700 bus1=BMT166721164.1.2.3,bus2=BMT166721168.1.2.3,Phases=3,LineCode=tieSwitch,Length=0.001,Units=km,switch=T !numEQ 195329
new line.CTR190967 bus1=BMT166721096.2,bus2=BMT166721097.2,Phases=1,LineCode=tieSwitch1,Length=0.001,Units=km,switch=T !numEQ 208434
new line.CTR30422 bus1=BMT166721319.2,bus2=BMT166721334.2,Phases=1,LineCode=tieSwitch1,Length=0.001,Units=km,switch=T !numEQ 63285
new line.CTR337210 bus1=BMT166720442.1,bus2=BMT166720446.1,Phases=1,LineCode=tieSwitch1,Length=0.001,Units=km,switch=T !numEQ 227312
new line.CTR337553 bus1=BMT166720936.1.2.3,bus2=BMT173113314.1.2.3,Phases=3,LineCode=tieSwitch,Length=0.001,Units=km,switch=T !numEQ 221597
new line.CTR338113 bus1=BMT166719819.1.2.3,bus2=BMT166719820.1.2.3,Phases=3,LineCode=tieSwitch,Length=0.001,Units=km,switch=T !numEQ 227313
new line.CTR373729 bus1=BMT172154874.3,bus2=BMT172154902.3,Phases=1,LineCode=tieSwitch1,Length=0.001,Units=km,switch=T !numEQ 292366
new line.CTR411578 bus1=BMT166721043.2,bus2=BMT166721047.2,Phases=1,LineCode=tieSwitch1,Length=0.001,Units=km,switch=T !numEQ 297945
new line.CTR44688 bus1=BMT166721357.3,bus2=BMT166721361.3,Phases=1,LineCode=tieSwitch1,Length=0.001,Units=km,switch=T !numEQ 63339
new line.CTR44702 bus1=BMT166721235.1.2.3,bus2=BMT166721237.1.2.3,Phases=3,LineCode=tieSwitch,Length=0.001,Units=km,switch=T !numEQ 62142
new line.CTR44709 bus1=BMT166721254.1.2.3,bus2=BMT166721256.1.2.3,Phases=3,LineCode=tieSwitch,Length=0.001,Units=km,switch=T !numEQ 128341
new line.CTR44730 bus1=BMT166720963.3,bus2=BMT171785832.3,Phases=1,LineCode=tieSwitch1,Length=0.001,Units=km,switch=T !numEQ 47336
new line.CTR44751 bus1=BMT166720958.2,bus2=BMT166721050.2,Phases=1,LineCode=tieSwitch1,Length=0.001,Units=km,switch=T !numEQ 299537
new line.CTR44779 bus1=BMT166721183.3,bus2=BMT166721186.3,Phases=1,LineCode=tieSwitch1,Length=0.001,Units=km,switch=T !numEQ 45705
new line.CTR44800 bus1=BMT166720221.2,bus2=BMT166720227.2,Phases=1,LineCode=tieSwitch1,Length=0.001,Units=km,switch=T !numEQ 63338
new line.CTR44807 bus1=BMT166720087.1.2.3,bus2=BMT166720091.1.2.3,Phases=3,LineCode=tieSwitch,Length=0.001,Units=km,switch=T !numEQ 63158
new line.CTR44814 bus1=BMT166720292.1,bus2=BMT166720402.1,Phases=1,LineCode=tieSwitch1,Length=0.001,Units=km,switch=T !numEQ 63291
new line.CTR44849 bus1=BMT166720018.1.2.3,bus2=BMT166720643.1.2.3,Phases=3,LineCode=tieSwitch,Length=0.001,Units=km,switch=T !numEQ 236857
new line.CTR44856 bus1=BMT166719793.1.2.3,bus2=BMT170686675.1.2.3,Phases=3,LineCode=tieSwitch,Length=0.001,Units=km,switch=T !numEQ 239458
new line.CTR44863 bus1=BMT166720019.2,bus2=BMT166720629.2,Phases=1,LineCode=tieSwitch1,Length=0.001,Units=km,switch=T !numEQ 301907
new line.CTR44877 bus1=BMT166720025.1.2.3,bus2=BMT166720617.1.2.3,Phases=3,LineCode=tieSwitch,Length=0.001,Units=km,switch=T !numEQ 269112
new line.CTR44884 bus1=BMT166720030.3,bus2=BMT166720600.3,Phases=1,LineCode=tieSwitch1,Length=0.001,Units=km,switch=T !numEQ 239427
new line.CTR44891 bus1=BMT166720031.1.2.3,bus2=BMT166720577.1.2.3,Phases=3,LineCode=tieSwitch,Length=0.001,Units=km,switch=T !numEQ 239428
new line.CTR44905 bus1=BMT166720057.1.2.3,bus2=BMT168969013.1.2.3,Phases=3,LineCode=tieSwitch,Length=0.001,Units=km,switch=T !numEQ 239434
new line.CTR44912 bus1=BMT166720063.1,bus2=BMT166720284.1,Phases=1,LineCode=tieSwitch1,Length=0.001,Units=km,switch=T !numEQ 380055
new line.CTR44919 bus1=BMT166720069.1.2.3,bus2=BMT167074793.1.2.3,Phases=3,LineCode=tieSwitch,Length=0.001,Units=km,switch=T !numEQ 239438
new line.CTR44926 bus1=BMT166720072.3,bus2=BMT166720263.3,Phases=1,LineCode=tieSwitch1,Length=0.001,Units=km,switch=T !numEQ 239440
new line.CTR44933 bus1=BMT166720088.1.2.3,bus2=BMT166720193.1.2.3,Phases=3,LineCode=tieSwitch,Length=0.001,Units=km,switch=T !numEQ 239443
new line.CTR44940 bus1=BMT166720141.1.2.3,bus2=BMT172648500.1.2.3,Phases=3,LineCode=tieSwitch,Length=0.001,Units=km,switch=T !numEQ 244256
new line.CTR44947 bus1=BMT166720142.1.2.3,bus2=BMT168676003.1.2.3,Phases=3,LineCode=tieSwitch,Length=0.001,Units=km,switch=T !numEQ 382051
new line.CTR450561 bus1=BMT166719922.2,bus2=BMT166719936.2,Phases=1,LineCode=tieSwitch1,Length=0.001,Units=km,switch=T !numEQ 302629
new line.CTR45101 bus1=BMT166719774.1.2.3,bus2=BMT166720718.1.2.3,Phases=3,LineCode=tieSwitch,Length=0.001,Units=km,switch=T !numEQ 373503
new line.CTR867493 bus1=BMT166720883.1.2.3,bus2=BMT166721354.1.2.3,Phases=3,LineCode=tieSwitch,Length=0.001,Units=km,switch=T !numEQ 236872
new line.CTR882577 bus1=BMT166720737.1,bus2=BMT166720740.1,Phases=1,LineCode=tieSwitch1,Length=0.001,Units=km,switch=T !numEQ 239294
new line.CTR883451 bus1=BMT166721383.1.2.3,bus2=BMT166721399.1.2.3,Phases=3,LineCode=tieSwitch,Length=0.001,Units=km,switch=T !numEQ 259418
new line.CTRR37226 bus1=BMT166720904.1.2.3,bus2=BMT166721157.1.2.3,Phases=3,LineCode=tieSwitch,Length=0.001,Units=km,switch=T !numEQ 175000
new line.CTRR37377 bus1=BMT166720145.1.2.3,bus2=BMT168676953.1.2.3,Phases=3,LineCode=tieSwitch,Length=0.001,Units=km,switch=T !numEQ 255431
new line.CTR102802 bus1=BMT167113758.1.2.3,bus2=BMT166721214.1.2.3,Phases=3,LineCode=tieSwitch,Length=0.001,Units=km,switch=T !numEQ 62141
open line.CTR102802 term=1
new line.CTR132503 bus1=BMT166719772.1.2.3,bus2=BMT170700968.1.2.3,Phases=3,LineCode=tieSwitch,Length=0.001,Units=km,switch=T !numEQ 65018
new line.CTR132524 bus1=BMT170700972.1.2.3,bus2=BMT2563785.1.2.3,Phases=3,LineCode=tieSwitch,Length=0.001,Units=km,switch=T !numEQ 45730
open line.CTR132524 term=1
new line.CTR132545 bus1=BMT166719818.1.2.3,bus2=BMT168096362.1.2.3,Phases=3,LineCode=tieSwitch,Length=0.001,Units=km,switch=T !numEQ 239460
new line.CTR132552 bus1=BMT166720024.1,bus2=BMT166720621.1,Phases=1,LineCode=tieSwitch1,Length=0.001,Units=km,switch=T !numEQ 269111
new line.CTR132559 bus1=BMT166720028.2,bus2=BMT167171349.2,Phases=1,LineCode=tieSwitch1,Length=0.001,Units=km,switch=T !numEQ 301906
new line.CTR132566 bus1=BMT166720033.1,bus2=BMT172640557.1,Phases=1,LineCode=tieSwitch1,Length=0.001,Units=km,switch=T !numEQ 239429
new line.CTR132573 bus1=BMT166720045.2,bus2=BMT166720552.2,Phases=1,LineCode=tieSwitch1,Length=0.001,Units=km,switch=T !numEQ 239431
new line.CTR132587 bus1=BMT166720070.1.2.3,bus2=BMT168098901.1.2.3,Phases=3,LineCode=tieSwitch,Length=0.001,Units=km,switch=T !numEQ 239439
new line.CTR132594 bus1=BMT166720084.3,bus2=BMT166720247.3,Phases=1,LineCode=tieSwitch1,Length=0.001,Units=km,switch=T !numEQ 239441
new line.CTR132601 bus1=BMT166720140.1.2.3,bus2=BMT166720188.1.2.3,Phases=3,LineCode=tieSwitch,Length=0.001,Units=km,switch=T !numEQ 244250
new line.CTR132615 bus1=BMT166720324.1,bus2=BMT166720333.1,Phases=1,LineCode=tieSwitch1,Length=0.001,Units=km,switch=T !numEQ 63278
new line.CTR132643 bus1=BMT166721033.2,bus2=BMT168093682.2,Phases=1,LineCode=tieSwitch1,Length=0.001,Units=km,switch=T !numEQ 47460
new line.CTR132650 bus1=BMT166720438.2,bus2=BMT166720529.2,Phases=1,LineCode=tieSwitch1,Length=0.001,Units=km,switch=T !numEQ 64113
new line.CTR132671 bus1=BMT166720880.1.2.3,bus2=BMT166720887.1.2.3,Phases=3,LineCode=tieSwitch,Length=0.001,Units=km,switch=T !numEQ 63275
new line.CTR132685 bus1=BMT166720913.1.2.3,bus2=BMT166720915.1.2.3,Phases=3,LineCode=tieSwitch,Length=0.001,Units=km,switch=T !numEQ 221593
new line.CTR132699 bus1=BMT166720967.3,bus2=BMT166720971.3,Phases=1,LineCode=tieSwitch1,Length=0.001,Units=km,switch=T !numEQ 64161
new line.CTR132713 bus1=BMT166721094.2,bus2=BMT166721103.2,Phases=1,LineCode=tieSwitch1,Length=0.001,Units=km,switch=T !numEQ 64178
new line.CTR132720 bus1=BMT166720919.1.2.3,bus2=BMT166721155.1.2.3,Phases=3,LineCode=tieSwitch,Length=0.001,Units=km,switch=T !numEQ 45711
new line.CTR132734 bus1=BMT166720214.2,bus2=BMT166720219.2,Phases=1,LineCode=tieSwitch1,Length=0.001,Units=km,switch=T !numEQ 63274
new line.CTR132741 bus1=BMT166720089.2,bus2=BMT167201293.2,Phases=1,LineCode=tieSwitch1,Length=0.001,Units=km,switch=T !numEQ 239444
new line.CTR132748 bus1=BMT166720299.1,bus2=BMT166720378.1,Phases=1,LineCode=tieSwitch1,Length=0.001,Units=km,switch=T !numEQ 64116
new line.CTR132769 bus1=BMT166719840.2,bus2=BMT166720005.2,Phases=1,LineCode=tieSwitch1,Length=0.001,Units=km,switch=T !numEQ 63377
new line.CTR132790 bus1=BMT166720672.2,bus2=BMT166720682.2,Phases=1,LineCode=tieSwitch1,Length=0.001,Units=km,switch=T !numEQ 62654
new line.CTR132797 bus1=BMT166719918.2,bus2=BMT166719975.2,Phases=1,LineCode=tieSwitch1,Length=0.001,Units=km,switch=T !numEQ 62610
new line.CTR132944 bus1=BMT166720791.1.2.3,bus2=BMT166720792.1.2.3,Phases=3,LineCode=tieSwitch,Length=0.001,Units=km,switch=T !numEQ 174544
new line.CTR162645 bus1=BMT166720061.3,bus2=BMT166720418.3,Phases=1,LineCode=tieSwitch1,Length=0.001,Units=km,switch=T !numEQ 239436
new line.CTR414791 bus1=BMT171199942.2,bus2=BMT171199952.2,Phases=1,LineCode=tieSwitch1,Length=0.001,Units=km,switch=T !numEQ 291270
new line.CTR418431 bus1=BMT166720944.2,bus2=BMT166721114.2,Phases=1,LineCode=tieSwitch1,Length=0.001,Units=km,switch=T !numEQ 299534
new line.CTR60347 bus1=BMT166719920.2,bus2=BMT166719921.2,Phases=1,LineCode=tieSwitch1,Length=0.001,Units=km,switch=T !numEQ 302628
new line.CTR65492 bus1=BMT167192995.1.2.3,bus2=BMT166720168.1.2.3,Phases=3,LineCode=tieSwitch,Length=0.001,Units=km,switch=T !numEQ 244238
! MANOBRA FECHAR
open line.CTR65492 term=1
new line.CTR82789 bus1=BMT166719981.2,bus2=BMT166719983.2,Phases=1,LineCode=tieSwitch1,Length=0.001,Units=km,switch=T !numEQ 173937
new line.CTR86996 bus1=BMT166719757.1.2.3,bus2=BMT167162601.1.2.3,Phases=3,LineCode=tieSwitch,Length=0.001,Units=km,switch=T !numEQ 174670
new line.CTR87003 bus1=BMT173160391.1.2.3,bus2=BMT4684407.1.2.3,Phases=3,LineCode=tieSwitch,Length=0.001,Units=km,switch=T !numEQ 174559
open line.CTR87003 term=1
new line.CTR87010 bus1=BMT166720758.1.2.3,bus2=BMT173160389.1.2.3,Phases=3,LineCode=tieSwitch,Length=0.001,Units=km,switch=T !numEQ 174558
new line.CTR884102 bus1=BMT166719815.1.2.3,bus2=BMT170687884.1.2.3,Phases=3,LineCode=tieSwitch,Length=0.001,Units=km,switch=T !numEQ 259931
new line.CTR89915 bus1=BMT166719805.1,bus2=BMT166720656.1,Phases=1,LineCode=tieSwitch1,Length=0.001,Units=km,switch=T !numEQ 103690
new line.CTRR10058 bus1=BMT166720920.1.2.3,bus2=BMT166721150.1.2.3,Phases=3,LineCode=tieSwitch,Length=0.001,Units=km,switch=T !numEQ 172549
new line.CTRR39968 bus1=BMT167194284.1.2.3,bus2=BMT167194285.1.2.3,Phases=3,LineCode=tieSwitch,Length=0.001,Units=km,switch=T !numEQ 244239
! Posicao original: fechado. Manobra2: ABRIR
!open line.CTRR39968 term=1
new line.CTR13538 bus1=BMT166720474.3,bus2=BMT166720513.3,Phases=1,LineCode=tieSwitch1,Length=0.001,Units=km,switch=T !numEQ 63456
new line.CTR135387 bus1=BMT166720844.1.2.3,bus2=BMT169287799.1.2.3,Phases=3,LineCode=tieSwitch,Length=0.001,Units=km,switch=T !numEQ 174595
new line.CTR135401 bus1=BMT166720853.2,bus2=BMT166759738.2,Phases=1,LineCode=tieSwitch1,Length=0.001,Units=km,switch=T !numEQ 174530
new line.CTR135408 bus1=BMT166720858.1,bus2=BMT166721404.1,Phases=1,LineCode=tieSwitch1,Length=0.001,Units=km,switch=T !numEQ 174531
new line.CTR135415 bus1=BMT166720870.1.2.3,bus2=BMT166721372.1.2.3,Phases=3,LineCode=tieSwitch,Length=0.001,Units=km,switch=T !numEQ 174017
new line.CTR135611 bus1=BMT166719758.1.2.3,bus2=BMT166719759.1.2.3,Phases=3,LineCode=tieSwitch,Length=0.001,Units=km,switch=T !numEQ 79782
new line.CTR166236 bus1=BMT166720868.1,bus2=BMT166721377.1,Phases=1,LineCode=tieSwitch1,Length=0.001,Units=km,switch=T !numEQ 62983
new line.CTR180537 bus1=BMT166719783.1.2.3,bus2=BMT166720709.1.2.3,Phases=3,LineCode=tieSwitch,Length=0.001,Units=km,switch=T !numEQ 172172
new line.CTR194782 bus1=BMT166720272.1,bus2=BMT166720275.1,Phases=1,LineCode=tieSwitch1,Length=0.001,Units=km,switch=T !numEQ 208436
new line.CTR195048 bus1=BMT166719763.1.2.3,bus2=BMT166719764.1.2.3,Phases=3,LineCode=tieSwitch,Length=0.001,Units=km,switch=T !numEQ 227454
new line.CTR31976 bus1=BMT166719770.1.2.3,bus2=BMT166720722.1.2.3,Phases=3,LineCode=tieSwitch,Length=0.001,Units=km,switch=T !numEQ 174296
new line.CTR321796 bus1=BMT166721204.1.2.3,bus2=BMT166721221.1.2.3,Phases=3,LineCode=tieSwitch,Length=0.001,Units=km,switch=T !numEQ 232199
new line.CTR357636 bus1=BMT166721091.2,bus2=BMT166721105.2,Phases=1,LineCode=tieSwitch1,Length=0.001,Units=km,switch=T !numEQ 130416
new line.CTR357972 bus1=BMT172648503.1,bus2=BMT172648537.1,Phases=1,LineCode=tieSwitch1,Length=0.001,Units=km,switch=T !numEQ 283491
new line.CTR358147 bus1=BMT166721200.1.2.3,bus2=BMT166721201.1.2.3,Phases=3,LineCode=tieSwitch,Length=0.001,Units=km,switch=T !numEQ 227309
new line.CTR358175 bus1=BMT166721205.1.2.3,bus2=BMT167113750.1.2.3,Phases=3,LineCode=tieSwitch,Length=0.001,Units=km,switch=T !numEQ 227310
new line.CTR358182 bus1=BMT166721210.1.2.3,bus2=BMT166721216.1.2.3,Phases=3,LineCode=tieSwitch,Length=0.001,Units=km,switch=T !numEQ 227311
new line.CTR396563 bus1=BMT166720942.1.2.3,bus2=BMT166720960.1.2.3,Phases=3,LineCode=tieSwitch,Length=0.001,Units=km,switch=T !numEQ 299536
new line.CTR396731 bus1=BMT166720956.2,bus2=BMT167489795.2,Phases=1,LineCode=tieSwitch1,Length=0.001,Units=km,switch=T !numEQ 299535
new line.CTR396815 bus1=BMT166720959.2,bus2=BMT166721001.2,Phases=1,LineCode=tieSwitch1,Length=0.001,Units=km,switch=T !numEQ 299538
new line.CTR432872 bus1=BMT166719775.1.2.3,bus2=BMT170631822.1.2.3,Phases=3,LineCode=tieSwitch,Length=0.001,Units=km,switch=T !numEQ 309623
new line.CTR73136 bus1=BMT166720923.1.2.3,bus2=BMT166721127.1.2.3,Phases=3,LineCode=tieSwitch,Length=0.001,Units=km,switch=T !numEQ 79354
new line.CTR79009 bus1=BMT166721233.1.2.3,bus2=BMT166720910.1.2.3,Phases=3,LineCode=tieSwitch,Length=0.001,Units=km,switch=T !numEQ 62851
open line.CTR79009 term=1
new line.CTR846015 bus1=BMT166719937.2,bus2=BMT166719960.2,Phases=1,LineCode=tieSwitch1,Length=0.001,Units=km,switch=T !numEQ 373521
new line.CTR846806 bus1=BMT166720213.1.2.3,bus2=BMT166720230.1.2.3,Phases=3,LineCode=tieSwitch,Length=0.001,Units=km,switch=T !numEQ 375515
new line.CTR904432 bus1=BMT168093687.2,bus2=BMT168094202.2,Phases=1,LineCode=tieSwitch1,Length=0.001,Units=km,switch=T !numEQ 276192
new line.CTR918391 bus1=BMT172773742.2,bus2=BMT172773845.2,Phases=1,LineCode=tieSwitch1,Length=0.001,Units=km,switch=T !numEQ 327440
new line.CTRR2576 bus1=BMT166720770.1.2.3,bus2=BMT166720771.1.2.3,Phases=3,LineCode=tieSwitch,Length=0.001,Units=km,switch=T !numEQ 174545
new line.CTR181650 bus1=BMT166719843.2,bus2=BMT166719853.2,Phases=1,LineCode=tieSwitch1,Length=0.001,Units=km,switch=T !numEQ 45381
new line.CTR182035 bus1=BMT166720360.1,bus2=BMT167936553.1,Phases=1,LineCode=tieSwitch1,Length=0.001,Units=km,switch=T !numEQ 171900
new line.CTR183337 bus1=BMT166720876.1.2.3,bus2=BMT166720877.1.2.3,Phases=3,LineCode=tieSwitch,Length=0.001,Units=km,switch=T !numEQ 174557
open line.CTR183337 term=1
new line.CTR31346 bus1=BMT166721131.3,bus2=BMT166721132.3,Phases=1,LineCode=tieSwitch1,Length=0.001,Units=km,switch=T !numEQ 79192
new line.CTR346506 bus1=BMT166720921.1.2.3,bus2=BMT166720922.1.2.3,Phases=3,LineCode=tieSwitch,Length=0.001,Units=km,switch=T !numEQ 62849
new line.CTR382731 bus1=BMT166720161.1.2.3,bus2=BMT172385886.1.2.3,Phases=3,LineCode=tieSwitch,Length=0.001,Units=km,switch=T !numEQ 296574
new line.CTR38353 bus1=BMT166720871.1.2.3,bus2=BMT166721356.1.2.3,Phases=3,LineCode=tieSwitch,Length=0.001,Units=km,switch=T !numEQ 174532
new line.CTR455972 bus1=BMT166720867.1.2.3,bus2=BMT166721382.1.2.3,Phases=3,LineCode=tieSwitch,Length=0.001,Units=km,switch=T !numEQ 308572
new line.CTR456098 bus1=BMT166721384.1.2.3,bus2=BMT166721397.1.2.3,Phases=3,LineCode=tieSwitch,Length=0.001,Units=km,switch=T !numEQ 316224
new line.CTR50554 bus1=BMT166720032.2,bus2=BMT166720573.2,Phases=1,LineCode=tieSwitch1,Length=0.001,Units=km,switch=T !numEQ 103675
new line.CTR55538 bus1=BMT166720926.1.2.3,bus2=BMT166720927.1.2.3,Phases=3,LineCode=tieSwitch,Length=0.001,Units=km,switch=T !numEQ 45726
new line.CTR60662 bus1=BMT166719768.1.2.3,bus2=BMT166719769.1.2.3,Phases=3,LineCode=tieSwitch,Length=0.001,Units=km,switch=T !numEQ 62327
new line.CTR77518 bus1=BMT166720834.3,bus2=BMT166721423.3,Phases=1,LineCode=tieSwitch1,Length=0.001,Units=km,switch=T !numEQ 141461
new line.CTR83594 bus1=BMT166720835.1,bus2=BMT166721421.1,Phases=1,LineCode=tieSwitch1,Length=0.001,Units=km,switch=T !numEQ 64520
new line.CTR857713 bus1=BMT166720890.1.2.3,bus2=BMT167194281.1.2.3,Phases=3,LineCode=tieSwitch,Length=0.001,Units=km,switch=T !numEQ 158244
new line.CTR871465 bus1=BMT166721259.1.2.3,bus2=BMT171189527.1.2.3,Phases=3,LineCode=tieSwitch,Length=0.001,Units=km,switch=T !numEQ 239088
new line.CTR901397 bus1=BMT167245409.1.2.3,bus2=BMT168677101.1.2.3,Phases=3,LineCode=tieSwitch,Length=0.001,Units=km,switch=T !numEQ 269126
new line.CTR9016 bus1=BMT166720972.3,bus2=BMT166720980.3,Phases=1,LineCode=tieSwitch1,Length=0.001,Units=km,switch=T !numEQ 63376
new line.CTR901712 bus1=BMT167188602.3,bus2=BMT170859424.3,Phases=1,LineCode=tieSwitch1,Length=0.001,Units=km,switch=T !numEQ 239432
new line.CTR901714 bus1=BMT167188821.2,bus2=BMT167188830.2,Phases=1,LineCode=tieSwitch1,Length=0.001,Units=km,switch=T !numEQ 239433
new line.CTRR16904 bus1=BMT166720873.1.2.3,bus2=BMT166720874.1.2.3,Phases=3,LineCode=tieSwitch,Length=0.001,Units=km,switch=T !numEQ 232161
new line.CTRR16911 bus1=BMT166721279.1.2.3,bus2=BMT129603436.1.2.3,Phases=3,LineCode=tieSwitch,Length=0.001,Units=km,switch=T !numEQ 232162
open line.CTRR16911 term=1
new line.CTRR42028 bus1=BMT170677722.1.2.3,bus2=BMT171486023.1.2.3,Phases=3,LineCode=tieSwitch,Length=0.001,Units=km,switch=T !numEQ 276211
new line.CTR118944 bus1=BMT166721277.1.2.3,bus2=BMT166721281.1.2.3,Phases=3,LineCode=tieSwitch,Length=0.001,Units=km,switch=T !numEQ 62350
new line.CTR133539 bus1=BMT166720783.3,bus2=BMT166721464.3,Phases=1,LineCode=tieSwitch1,Length=0.001,Units=km,switch=T !numEQ 64473
new line.CTR163485 bus1=BMT166720060.1,bus2=BMT166720422.1,Phases=1,LineCode=tieSwitch1,Length=0.001,Units=km,switch=T !numEQ 239435
new line.CTR178094 bus1=BMT166721009.2,bus2=BMT166721027.2,Phases=1,LineCode=tieSwitch1,Length=0.001,Units=km,switch=T !numEQ 63306
new line.CTR178514 bus1=BMT166719848.2,bus2=BMT171199940.2,Phases=1,LineCode=tieSwitch1,Length=0.001,Units=km,switch=T !numEQ 298056
new line.CTR178528 bus1=BMT166721318.2,bus2=BMT166721323.2,Phases=1,LineCode=tieSwitch1,Length=0.001,Units=km,switch=T !numEQ 205376
new line.CTR178563 bus1=BMT166720644.2,bus2=BMT166720646.2,Phases=1,LineCode=tieSwitch1,Length=0.001,Units=km,switch=T !numEQ 236858
new line.CTR178654 bus1=BMT166721344.1.2.3,bus2=BMT166721346.1.2.3,Phases=3,LineCode=tieSwitch,Length=0.001,Units=km,switch=T !numEQ 197406
new line.CTR179221 bus1=BMT166719885.2,bus2=BMT166719886.2,Phases=1,LineCode=tieSwitch1,Length=0.001,Units=km,switch=T !numEQ 138686
new line.CTR23646 bus1=BMT166719782.1.2.3,bus2=BMT166720711.1.2.3,Phases=3,LineCode=tieSwitch,Length=0.001,Units=km,switch=T !numEQ 239457
new line.CTR46011 bus1=BMT166721316.1,bus2=BMT166721336.1,Phases=1,LineCode=tieSwitch1,Length=0.001,Units=km,switch=T !numEQ 63284
new line.CTR46333 bus1=BMT166720832.2,bus2=BMT172773733.2,Phases=1,LineCode=tieSwitch1,Length=0.001,Units=km,switch=T !numEQ 64058
new line.CTR844223 bus1=BMT166720120.3,bus2=BMT169703238.3,Phases=1,LineCode=tieSwitch1,Length=0.001,Units=km,switch=T !numEQ 305164
new line.CTR844242 bus1=BMT167558930.1.2.3,bus2=BMT167558931.1.2.3,Phases=3,LineCode=tieSwitch,Length=0.001,Units=km,switch=T !numEQ 305163
new line.CTR844243 bus1=BMT166720118.1.2.3,bus2=BMT169056874.1.2.3,Phases=3,LineCode=tieSwitch,Length=0.001,Units=km,switch=T !numEQ 306109
new line.CTR873983 bus1=BMT166721385.1.2.3,bus2=BMT166721386.1.2.3,Phases=3,LineCode=tieSwitch,Length=0.001,Units=km,switch=T !numEQ 244689
new line.CTR888161 bus1=BMT166721159.1.2.3,bus2=BMT168100356.1.2.3,Phases=3,LineCode=tieSwitch,Length=0.001,Units=km,switch=T !numEQ 255447
new line.CTR916711 bus1=BMT172269806.1,bus2=BMT172270099.1,Phases=1,LineCode=tieSwitch1,Length=0.001,Units=km,switch=T !numEQ 323449
new line.CTRR42919 bus1=BMT172385893.1.2.3,bus2=BMT172385894.1.2.3,Phases=3,LineCode=tieSwitch,Length=0.001,Units=km,switch=T !numEQ 324531
