2024_89_CemigReconfigurationCases/1_AlimsCemig/SRS10/SRS10SegmentosBT.dss
new line.1441293 bus1=BBT1645210.1.2.0,bus2=BBT1645217.1.2.0,Phases=2,Linecode=BT307_BT307_7_2_1,Length=0.000501000,Units=km
new line.1441321 bus1=BBT1645252.1.2.0,bus2=BBT1645259.1.2.0,Phases=2,Linecode=BT307_BT307_7_2_1,Length=0.000501000,Units=km
new line.1441328 bus1=BBT1645266.1.2.0,bus2=BBT1645273.1.2.0,Phases=2,Linecode=BT308_BT308_7_2_1,Length=0.000501000,Units=km
new line.1441335 bus1=BBT1645280.1.2.0,bus2=BBT1645287.1.2.0,Phases=2,Linecode=BT307_BT307_7_2_1,Length=0.000501000,Units=km
new line.1441349 bus1=BBT1645308.1.2.0,bus2=BBT1645315.1.2.0,Phases=2,Linecode=BT304_BT304_7_2_1,Length=0.000501000,Units=km
new line.1441377 bus1=BBT1645364.1.2.0,bus2=BBT1645371.1.2.0,Phases=2,Linecode=BT518_BT518_7_2_1,Length=0.000501000,Units=km
new line.1441384 bus1=BBT1645371.1.2.0,bus2=BBT3611279.1.2.0,Phases=2,Linecode=BT814_BT814_4_2_3,Length=0.043118000,Units=km
new line.1441391 bus1=BBT1645378.1.2.0,bus2=BBT1645385.1.2.0,Phases=2,Linecode=BT316_BT316_7_2_1,Length=0.000501000,Units=km
new line.1441412 bus1=BBT1645420.1.2.0,bus2=BBT1645427.1.2.0,Phases=2,Linecode=BT518_BT518_7_2_1,Length=0.000501000,Units=km
new line.1441419 bus1=BBT1645427.1.2.0,bus2=BBT3248994.1.2.0,Phases=2,Linecode=BT106_BT106_7_2_1,Length=0.076346000,Units=km
new line.1441426 bus1=BBT1645434.1.2.0,bus2=BBT1645441.1.2.0,Phases=2,Linecode=BT304_BT304_7_2_1,Length=0.000501000,Units=km
new line.1441454 bus1=BBT1645476.1.2.0,bus2=BBT1645483.1.2.0,Phases=2,Linecode=BT304_BT304_7_2_1,Length=0.000501000,Units=km
new line.1441475 bus1=BBT1645504.1.2.0,bus2=BBT1645511.1.2.0,Phases=2,Linecode=BT518_BT518_7_2_1,Length=0.000501000,Units=km
new line.1441482 bus1=BBT1645518.1.2.0,bus2=BBT1645525.1.2.0,Phases=2,Linecode=BT304_BT304_7_2_1,Length=0.000501000,Units=km
new line.1441489 bus1=BBT1645532.1.2.0,bus2=BBT1645539.1.2.0,Phases=2,Linecode=BT513_BT513_7_2_1,Length=0.000501000,Units=km
new line.1441496 bus1=BBT1645539.1.2.0,bus2=BBT2755039.1.2.0,Phases=2,Linecode=BT807_BT807_4_2_3,Length=0.040867000,Units=km
new line.1441503 bus1=BBT1645539.1.2.0,bus2=BBT2755018.1.2.0,Phases=2,Linecode=BT807_BT807_4_2_3,Length=0.028081000,Units=km
new line.1441510 bus1=BBT1645546.1.2.0,bus2=BBT1645553.1.2.0,Phases=2,Linecode=BT317_BT317_7_2_1,Length=0.000501000,Units=km
new line.1441517 bus1=BBT1645560.1.2.0,bus2=BBT1645567.1.2.0,Phases=2,Linecode=BT304_BT304_7_2_1,Length=0.000501000,Units=km
new line.1441524 bus1=BBT1645574.1.2.0,bus2=BBT1645581.1.2.0,Phases=2,Linecode=BT304_BT304_7_2_1,Length=0.000501000,Units=km
new line.1441531 bus1=BBT1645588.1.2.0,bus2=BBT1645595.1.2.0,Phases=2,Linecode=BT518_BT518_7_2_1,Length=0.000501000,Units=km
new line.1441538 bus1=BBT1645595.1.2.0,bus2=BBT2755137.1.2.0,Phases=2,Linecode=BT108_BT107_7_2_1,Length=0.035452000,Units=km
new line.1441545 bus1=BBT1645595.1.2.0,bus2=BBT2755088.1.2.0,Phases=2,Linecode=BT107_BT107_7_2_1,Length=0.033253000,Units=km
new line.1441552 bus1=BBT1645602.1.2.0,bus2=BBT1645609.1.2.0,Phases=2,Linecode=BT307_BT307_7_2_1,Length=0.000501000,Units=km
new line.1441559 bus1=BBT1645616.1.2.0,bus2=BBT1645623.1.2.0,Phases=2,Linecode=BT304_BT304_7_2_1,Length=0.000501000,Units=km
new line.1441566 bus1=BBT1645630.1.2.0,bus2=BBT1645637.1.2.0,Phases=2,Linecode=BT304_BT304_7_2_1,Length=0.000501000,Units=km
new line.1441573 bus1=BBT1645644.1.2.0,bus2=BBT1645651.1.2.0,Phases=2,Linecode=BT304_BT304_7_2_1,Length=0.000501000,Units=km
new line.1441580 bus1=BBT1645658.1.2.0,bus2=BBT1645665.1.2.0,Phases=2,Linecode=BT304_BT304_7_2_1,Length=0.000501000,Units=km
new line.1441594 bus1=BBT1645686.1.2.0,bus2=BBT1645693.1.2.0,Phases=2,Linecode=BT308_BT308_7_2_1,Length=0.000501000,Units=km
new line.1441601 bus1=BBT1645700.1.2.0,bus2=BBT1645707.1.2.0,Phases=2,Linecode=BT304_BT304_7_2_1,Length=0.000501000,Units=km
new line.1441608 bus1=BBT1645714.1.2.0,bus2=BBT1645721.1.2.0,Phases=2,Linecode=BT304_BT304_7_2_1,Length=0.000501000,Units=km
new line.1441615 bus1=BBT1645728.1.2.0,bus2=BBT1645735.1.2.0,Phases=2,Linecode=BT317_BT317_7_2_1,Length=0.000501000,Units=km
new line.1441622 bus1=BBT1645742.1.2.0,bus2=BBT1645749.1.2.0,Phases=2,Linecode=BT317_BT317_7_2_1,Length=0.000501000,Units=km
new line.1441629 bus1=BBT1645756.1.2.0,bus2=BBT1645763.1.2.0,Phases=2,Linecode=BT307_BT307_7_2_1,Length=0.000501000,Units=km
new line.1441636 bus1=BBT1645763.1.2.0,bus2=BBT2805719.1.2.0,Phases=2,Linecode=BT108_BT107_7_2_1,Length=0.059155000,Units=km
new line.1441643 bus1=BBT1645763.1.2.0,bus2=BBT2805705.1.2.0,Phases=2,Linecode=BT108_BT107_7_2_1,Length=0.059113000,Units=km
new line.1441650 bus1=BBT1645770.1.2.0,bus2=BBT1645777.1.2.0,Phases=2,Linecode=BT307_BT307_7_2_1,Length=0.000501000,Units=km
new line.1441664 bus1=BBT1645784.1.2.0,bus2=BBT1645791.1.2.0,Phases=2,Linecode=BT304_BT304_7_2_1,Length=0.000501000,Units=km
new line.1441671 bus1=BBT1645798.1.2.0,bus2=BBT1645805.1.2.0,Phases=2,Linecode=BT307_BT307_7_2_1,Length=0.000501000,Units=km
new line.1441678 bus1=BBT1645812.1.2.0,bus2=BBT1645819.1.2.0,Phases=2,Linecode=BT304_BT304_7_2_1,Length=0.000501000,Units=km
...